12
	Energy:      10.5736998
C         -6.37604        3.91556       -0.00000
C         -6.38941        2.51658        0.00000
C         -5.18455        1.80551       -0.00000
C         -3.96631        2.49342       -0.00000
C         -3.95294        3.89240       -0.00000
C         -5.15781        4.60347       -0.00000
H         -5.14746        5.68576       -0.00000
H         -7.30816        4.46566       -0.00000
H         -7.33187        1.98439        0.00000
H         -5.19489        0.72322        0.00000
H         -3.03419        1.94332       -0.00000
H         -3.01048        4.42459       -0.00000
