12
	Energy:      10.5736998
C          5.55065       -0.13250        0.00000
C          5.13174       -1.46735        0.00000
C          6.91612        0.17214       -0.00000
C          7.86268       -0.85808       -0.00000
C          7.44377       -2.19293        0.00000
C          6.07830       -2.49757        0.00000
H          5.75421       -3.53025        0.00000
H          4.81836        0.66451        0.00000
H          4.07537       -1.70303        0.00000
H          7.24020        1.20482       -0.00000
H          8.91905       -0.62240       -0.00000
H          8.17606       -2.98993        0.00000
